%chk=molecule.chk
%nproc=4
# hf/3-21g force 

The Molecule

0 1
H         -15.756000      9.834000      -1.216000
O         -15.649000      9.353000      -0.401000
P         -14.209000      9.367000       0.000000
O         -13.989000      10.631000      0.734000
O         -13.419000      9.190000      -1.240000
O         -13.959000      8.126000       0.971000
C         -14.899000      7.881000       2.047000
C         -14.169000      7.317000       3.247000
O         -13.959000      5.886000       3.037000
C         -12.769000      7.870000       3.508000
O         -12.379000      7.728000       4.868000
C         -11.889000      6.984000       2.637000
C         -12.599000      5.641000       2.732000
N         -12.549000      4.844000       1.478000
C         -12.629000      5.293000       0.184000
N         -12.559000      4.344000      -0.699000
C         -12.409000      3.197000       0.058000
C         -12.279000      1.836000      -0.294000
N         -12.269000      1.395000      -1.548000
N         -12.159000      0.949000       0.705000
C         -12.169000      1.389000       1.960000
N         -12.289000      2.617000       2.415000
C         -12.409000      3.482000       1.391000
H         -15.387000      8.826000       2.325000
H         -15.659000      7.161000       1.712000
H         -14.791000      7.493000       4.132000
H         -12.136000      5.056000       3.540000
H         -11.856000      7.347000       1.599000
H         -10.865000      6.925000       3.037000
H         -12.699000      8.927000       3.207000
H         -12.740000      6.345000      -0.077000
H         -12.359000      2.060000      -2.329000
H         -12.170000      0.387000      -1.739000
H         -12.062000      0.622000       2.719000
P         -10.829000      7.952000       4.817000
O         -10.609000      8.619000       6.118000
O         -10.039000      8.473000       3.678000
O         -10.579000      6.383000       4.963000
C         -11.519000      5.595000       5.735000
C         -10.789000      4.473000       6.440000
O         -10.579000      3.382000       5.489000
C         -9.389000       4.796000       6.958000
O         -8.999000       3.941000       8.026000
C         -8.509000       4.522000       5.748000
C         -9.219000       3.341000       5.101000
N         -9.169000       3.348000       3.615000
C         -9.019000       2.130000       2.960000
O         -8.929000       1.094000       3.635000
N         -8.969000       2.252000       1.455000
C         -9.069000       3.254000       0.906000
N         -9.019000       3.185000      -0.417000
C         -9.219000       4.520000       1.554000
C         -9.269000       4.509000       2.912000
H         -12.009000      6.239000       6.479000
H         -12.278000      5.169000       5.062000
H         -11.411000      4.142000       7.280000
H         -8.756000       2.412000       5.464000
H         -8.477000       5.389000       5.070000
H         -7.485000       4.256000       6.051000
H         -9.319000       5.848000       7.277000
H         -9.391000       5.446000       3.452000
H         -9.289000       5.447000       0.987000
H         -8.901000       2.272000      -0.881000
H         -9.098000       4.043000      -0.980000
P         -7.449000       4.158000       8.105000
O         -7.229000       4.015000       9.558000
O         -6.659000       5.211000       7.428000
O         -7.199000       2.759000       7.379000
C         -8.139000       1.679000       7.602000
C         -7.409000       0.354000       7.589000
O         -7.199000      -0.050000       6.199000
C         -6.009000       0.345000       8.199000
O         -5.619000      -0.951000       8.636000
C         -5.129000       0.769000       7.033000
C         -5.839000       0.125000       5.851000
N         -5.789000       0.935000       4.605000
C         -5.869000       2.304000       4.451000
N         -5.789000       2.707000       3.210000
C         -5.649000       1.527000       2.479000
C         -5.519000       1.325000       1.086000
O         -5.499000       2.156000       0.180000
N         -5.399000      -0.042000       0.773000
C         -5.399000      -1.068000       1.695000
N         -5.269000      -2.302000       1.203000
N         -5.529000      -0.881000       3.006000
C         -5.649000       0.435000       3.330000
H         -8.628000       1.818000       8.578000
H         -8.898000       1.684000       6.807000
H         -8.031000      -0.379000       8.116000
H         -5.376000      -0.858000       5.652000
H         -5.097000       1.865000       6.930000
H         -4.105000       0.381000       7.145000
H         -5.939000       1.058000       9.036000
H         -5.988000       2.989000       5.290000
H         -5.306000      -0.288000      -0.192000
H         -5.269000      -3.114000       1.837000
H         -5.168000      -2.445000       0.187000
P         -4.069000      -0.811000       8.819000
O         -3.849000      -1.717000       9.966000
O         -3.279000       0.441000       8.820000
O         -3.819000      -1.596000       7.452000
C         -4.759000      -2.625000       7.055000
C         -4.029000      -3.733000       6.329000
O         -3.819000      -3.321000       4.941000
C         -2.629000      -4.070000       6.837000
O         -2.239000      -5.397000       6.504000
C         -1.749000      -3.083000       6.086000
C         -2.459000      -2.985000       4.743000
N         -2.409000      -1.631000       4.132000
C         -2.259000      -1.558000       2.764000
O         -2.169000      -2.545000       2.058000
N         -2.219000      -0.278000       2.243000
C         -2.309000       0.897000       2.947000
O         -2.259000       1.989000       2.368000
C         -2.459000       0.725000       4.372000
C         -2.569000       1.981000       5.180000
C         -2.509000      -0.508000       4.916000
H         -5.249000      -3.035000       7.952000
H         -5.518000      -2.190000       6.389000
H         -4.651000      -4.634000       6.376000
H         -1.996000      -3.700000       4.047000
H         -1.717000      -2.106000       6.592000
H         -0.725000      -3.470000       5.969000
H         -2.559000      -3.923000       7.926000
H         -2.630000      -0.614000       5.994000
H         -1.600000       2.201000       5.654000
H         -3.337000       1.853000       5.956000
H         -2.849000       2.818000       4.522000
H         -2.113000      -0.202000       1.251000
H         -2.370000      -5.540000       5.564000
H          1.652000       4.571000      -8.575000
O          1.532000       3.672000      -8.303000
P          0.091000       3.297000      -8.445000
O         -0.129000       3.004000      -9.877000
O         -0.699000       4.415000      -7.882000
O         -0.159000       1.980000      -7.578000
C          0.781000       0.882000      -7.689000
C          0.051000      -0.435000      -7.537000
O         -0.159000      -0.692000      -6.113000
C         -1.349000      -0.499000      -8.144000
O         -1.739000      -1.842000      -8.443000
C         -2.229000       0.036000      -7.027000
C         -1.519000      -0.481000      -5.784000
N         -1.569000       0.458000      -4.630000
C         -1.489000       1.824000      -4.643000
N         -1.559000       2.359000      -3.462000
C         -1.709000       1.275000      -2.615000
C         -1.839000       1.175000      -1.213000
N         -1.849000       2.223000      -0.396000
N         -1.959000      -0.055000      -0.691000
C         -1.949000      -1.104000      -1.508000
N         -1.829000      -1.144000      -2.817000
C         -1.709000       0.102000      -3.311000
H          1.270000       0.919000      -8.674000
H          1.542000       0.977000      -6.898000
H          0.674000      -1.218000      -7.985000
H         -1.981000      -1.433000      -5.487000
H         -2.261000       1.136000      -7.039000
H         -3.252000      -0.362000      -7.098000
H         -1.418000       0.115000      -9.050000
H         -1.377000       2.406000      -5.557000
H         -1.758000       3.175000      -0.777000
H         -1.947000       2.083000       0.621000
H         -2.055000      -2.068000      -1.023000
P         -3.289000      -1.720000      -8.640000
O         -3.509000      -2.740000      -9.686000
O         -4.079000      -0.475000      -8.771000
O         -3.539000      -2.359000      -7.200000
C         -2.599000      -3.343000      -6.698000
C         -3.329000      -4.363000      -5.864000
O         -3.539000      -3.815000      -4.522000
C         -4.729000      -4.750000      -6.335000
O         -5.119000      -6.042000      -5.861000
C         -5.609000      -3.696000      -5.684000
C         -4.899000      -3.460000      -4.359000
N         -4.949000      -2.049000      -3.893000
C         -5.099000      -1.816000      -2.529000
O         -5.189000      -2.785000      -1.762000
N         -5.149000      -0.350000      -2.165000
C         -5.049000       0.490000      -2.940000
N         -5.099000       1.720000      -2.454000
C         -4.899000       0.279000      -4.346000
C         -4.849000      -1.017000      -4.767000
H         -2.109000      -3.843000      -7.546000
H         -1.839000      -2.842000      -6.081000
H         -2.706000      -5.270000      -5.813000
H         -5.361000      -4.100000      -3.594000
H         -5.641000      -2.778000      -6.290000
H         -6.632000      -4.070000      -5.530000
H         -4.798000      -4.724000      -7.428000
H         -4.726000      -1.225000      -5.829000
H         -4.828000       1.112000      -5.046000
H         -5.216000       1.870000      -1.442000
H         -5.020000       2.529000      -3.087000
P         -6.669000      -6.046000      -6.092000
O         -6.889000      -7.469000      -6.420000
O         -7.459000      -5.069000      -6.875000
O         -6.919000      -5.804000      -4.534000
C         -5.979000      -6.361000      -3.581000
C         -6.709000      -6.770000      -2.320000
O         -6.919000      -5.581000      -1.494000
C         -8.109000      -7.348000      -2.514000
O         -8.499000      -8.178000      -1.417000
C         -8.989000      -6.110000      -2.537000
C         -8.279000      -5.195000      -1.550000
N         -8.329000      -3.756000      -1.920000
C         -8.249000      -3.174000      -3.170000
N         -8.329000      -1.868000      -3.156000
C         -8.469000      -1.552000      -1.804000
C         -8.599000      -0.295000      -1.168000
O         -8.619000       0.828000      -1.669000
N         -8.719000      -0.435000       0.225000
C         -8.719000      -1.637000       0.906000
N         -8.849000      -1.563000       2.232000
N         -8.589000      -2.819000       0.307000
C         -8.469000      -2.706000      -1.043000
H         -5.490000      -7.241000      -4.023000
H         -5.218000      -5.606000      -3.332000
H         -6.086000      -7.503000      -1.793000
H         -8.741000      -5.320000      -0.560000
H         -9.021000      -5.665000      -3.543000
H         -10.012000     -6.341000      -2.204000
H         -8.178000      -7.918000      -3.448000
H         -8.129000      -3.751000      -4.087000
H         -8.811000       0.401000       0.766000
H         -8.848000      -2.422000       2.800000
H         -8.949000      -0.644000       2.690000
P         -10.049000     -8.307000      -1.609000
O         -10.269000     -9.682000      -1.116000
O         -10.839000     -7.908000      -2.796000
O         -10.299000     -7.261000      -0.430000
C         -9.359000      -7.213000       0.674000
C         -10.089000     -6.877000       1.956000
O         -10.299000     -5.430000       2.007000
C         -11.489000     -7.465000       2.112000
O         -11.879000     -7.573000       3.477000
C         -12.369000     -6.438000       1.416000
C         -11.659000     -5.134000       1.752000
N         -11.709000     -4.125000       0.662000
C         -11.859000     -2.804000       1.029000
O         -11.949000     -2.451000       2.190000
N         -11.899000     -1.903000      -0.016000
C         -11.809000     -2.196000      -1.356000
O         -11.859000     -1.299000      -2.207000
C         -11.659000     -3.601000      -1.647000
C         -11.549000     -3.967000      -3.096000
C         -11.609000     -4.511000      -0.652000
H         -8.868000      -8.192000       0.777000
H         -8.599000      -6.443000       0.474000
H         -9.466000      -7.209000       2.795000
H         -12.121000     -4.704000       2.651000
H         -12.400000     -6.608000       0.329000
H         -13.392000     -6.451000       1.820000
H         -11.558000     -8.451000       1.626000
H         -11.487000     -5.565000      -0.895000
H         -12.517000     -4.346000      -3.455000
H         -10.780000     -4.743000      -3.221000
H         -11.268000     -3.076000      -3.678000
H         -12.004000     -0.939000       0.228000
H         -12.596000     -8.206000       3.557000
H         -12.596000     -8.206000       3.557000
H         -2.820128      -3.651973      -6.445369
H         -3.479542      -3.970157      -4.901965
H         -5.119072      -3.533151      -4.769697
H         -8.395398      -7.957514      -1.708414
H         -8.717267      -6.492279      -2.529898
H         -7.928312      -5.294534      -1.535560
H         -11.295649      5.251713       5.950702
H         -10.638226      3.689695       5.757211
H         -8.998712       3.707423       5.301741
H         -5.721068      -0.611820       8.521631
H         -5.401543       0.637684       7.394120
H         -6.189587       0.079888       5.940709
H         -2.820128      -3.651973      -6.445369
H         -3.479542      -3.970157      -4.901965
H         -5.119072      -3.533151      -4.769697
H         -8.395398      -7.957514      -1.708414
H         -8.717267      -6.492279      -2.529898
H         -7.928312      -5.294534      -1.535560
H         -11.295649      5.251713       5.950702
H         -10.638226      3.689695       5.757211
H         -8.998712       3.707423       5.301741
H         -5.721068      -0.611820       8.521631
H         -5.401543       0.637684       7.394120

