%chk=part1.chk
%nproc=6
# hf/3-21g force 

Part[1]Frag

0 1
O         -3.779000      -4.938000       2.376000
C         -3.812000      -4.067000       3.517000
C         -6.049000      -5.730000       2.653000
C         -5.026000      -5.107000       1.709000
C         -4.837000      -4.627000       4.538000
C         -6.238000      -4.917000       3.952000
H         -3.867000      -1.965000       4.037000
H         -4.914000      -2.373000       2.673000
C         -3.952000      -2.590000       3.140000
H         -2.815000      -4.205000       3.958000
O         -3.096000      -4.522000      -2.274000
C         -3.286000      -4.732000      -0.883000
C         -4.583000      -5.530000      -0.666000
H         -2.420000      -5.252000      -0.458000
C         -4.534000      -6.807000      -1.518000
C         -4.184000      -6.536000      -2.979000
C         -2.889000      -5.723000      -3.029000
O         -4.790000      -6.020000       0.659000
H         -4.758000      -8.318000      -3.510000
H         -7.217000      -5.170000       5.887000
H         -6.575000      -6.686000       5.218000
H         -7.864000      -3.803000       3.361000
H         -6.894000      -3.032000       4.431000
H          0.743000      -1.629000      -0.701000
C         -4.896000       0.227000      -0.585000
C         -4.694000       0.777000       0.681000
H         -8.050000      -5.975000       4.537000
O         -3.448000      -3.460000      -0.296000
H         -2.673000       0.873000      -1.341000
C          0.758000      -3.949000      -0.327000
C          1.341000      -4.199000      -1.570000
H          0.696000      -4.355000      -2.431000
H         -2.068000      -6.304000      -2.581000
H         -2.231000      -6.150000      -5.035000
O         -3.990000      -7.752000      -3.691000
C         -2.478000      -5.277000      -4.428000
H         -3.754000      -7.461000      -1.098000
H         -4.994000      -5.948000      -3.440000
H         -5.427000      -4.897000      -0.974000
O         -5.785000      -7.493000      -1.502000
H         -3.314000      -4.742000      -4.904000
O         -1.315000      -4.457000      -4.384000
H         -1.531000      -3.694000      -3.823000
H         -4.161000      -3.649000       6.118000
H         -7.015000      -5.820000       2.138000
H         -5.705000      -6.744000       2.890000
H         -5.373000      -4.149000       1.306000
H         -3.141000      -2.323000       2.455000
O         -5.010000      -3.758000       5.664000
H         -4.438000      -5.594000       4.881000
N         -6.890000      -3.636000       3.610000
C         -7.066000      -5.738000       4.963000
C         -1.152000      -2.595000      -0.545000
O         -4.455000      -1.055000      -0.857000
C         -3.073000      -1.187000      -0.864000
C         -2.550000      -2.463000      -0.588000
C         -0.860000      -0.243000      -1.061000
C         -2.241000      -0.097000      -1.128000
H         -6.000000      -7.679000      -0.573000
H         -4.272000       0.149000       1.459000
O         -0.620000      -3.837000      -0.226000
C         -0.326000      -1.497000      -0.780000
H          2.728000      -4.211000      -1.707000
H          1.575000      -3.776000       0.797000
H         -4.921000       2.131000       0.907000
H         -5.472000       1.015000      -1.587000
H          0.076000       0.933000      -1.336000

