%chk=molecule.chk
%nproc=4
# hf/3-21g force 

Part[1]Frag

0 1
C         -1.949000      -1.104000      -1.508000
H         -5.490000      -7.241000      -4.023000
C         -1.709000       0.102000      -3.311000
N         -1.829000      -1.144000      -2.817000
C         -5.979000      -6.361000      -3.581000
O         -6.919000      -5.804000      -4.534000
H         -1.981000      -1.433000      -5.487000
N         -1.959000      -0.055000      -0.691000
P         -6.669000      -6.046000      -6.092000
H         -2.261000       1.136000      -7.039000
O         -7.459000      -5.069000      -6.875000
O         -6.889000      -7.469000      -6.420000
H         -4.726000      -1.225000      -5.829000
H         -4.798000      -4.724000      -7.428000
H         -5.218000      -5.606000      -3.332000
H         -6.086000      -7.503000      -1.793000
P          0.091000       3.297000      -8.445000
O          1.532000       3.672000      -8.303000
H          1.652000       4.571000      -8.575000
C         -8.109000      -7.348000      -2.514000
C          0.781000       0.882000      -7.689000
O         -0.159000       1.980000      -7.578000
O         -0.699000       4.415000      -7.882000
O         -5.189000      -2.785000      -1.762000
C         -5.099000      -1.816000      -2.529000
N         -4.949000      -2.049000      -3.893000
O         -0.159000      -0.692000      -6.113000
C          0.051000      -0.435000      -7.537000
O         -5.119000      -6.042000      -5.861000
C         -4.729000      -4.750000      -6.335000
O         -3.539000      -3.815000      -4.522000
C         -3.329000      -4.363000      -5.864000
C         -5.609000      -3.696000      -5.684000
H         -1.418000       0.115000      -9.050000
C         -4.899000      -3.460000      -4.359000
H          0.674000      -1.218000      -7.985000
H         -5.216000       1.870000      -1.442000
C         -4.899000       0.279000      -4.346000
C         -4.849000      -1.017000      -4.767000
C         -5.049000       0.490000      -2.940000
N         -5.099000       1.720000      -2.454000
H         -2.706000      -5.270000      -5.813000
H         -5.361000      -4.100000      -3.594000
H         -2.109000      -3.843000      -7.546000
H         -1.839000      -2.842000      -6.081000
H         -5.641000      -2.778000      -6.290000
H         -6.632000      -4.070000      -5.530000
H         -3.252000      -0.362000      -7.098000
N         -1.559000       2.359000      -3.462000
C         -6.709000      -6.770000      -2.320000
N         -1.569000       0.458000      -4.630000
C         -1.489000       1.824000      -4.643000
C         -2.229000       0.036000      -7.027000
C         -1.519000      -0.481000      -5.784000
C         -1.349000      -0.499000      -8.144000
O         -1.739000      -1.842000      -8.443000
H         -4.828000       1.112000      -5.046000
C         -1.839000       1.175000      -1.213000
N         -1.849000       2.223000      -0.396000
O         -3.539000      -2.359000      -7.200000
C         -2.599000      -3.343000      -6.698000
H         -2.055000      -2.068000      -1.023000
P         -3.289000      -1.720000      -8.640000
O         -3.509000      -2.740000      -9.686000
O         -4.079000      -0.475000      -8.771000
H         -8.178000      -7.918000      -3.448000
H         -1.377000       2.406000      -5.557000
H         -1.758000       3.175000      -0.777000
H         -1.947000       2.083000       0.621000
O         -0.129000       3.004000      -9.877000
H          1.542000       0.977000      -6.898000
N         -5.149000      -0.350000      -2.165000
C         -1.709000       1.275000      -2.615000
H          1.270000       0.919000      -8.674000
O         -6.919000      -5.581000      -1.494000
H         -5.020000       2.529000      -3.087000
H         -8.395398      -7.957514      -1.708414
H         -8.717267      -6.492279      -2.529898
H         -7.928312      -5.294534      -1.535560
