%chk=part0_2.chk
%nproc=6
# hf/3-21g force 

Part[0, 2]Frag

0 1
H         -0.879000       3.357000      -4.114000
O          0.320000       2.785000       0.913000
H          1.254000       2.934000       1.156000
H         -0.228000       2.729000       1.669000
H         -2.916000       2.034000       0.266000
O         -2.695000       1.298000       0.849000
O         -2.189000      -1.319000       2.442000
H         -1.118000       0.133000       0.430000
O         -0.309000      -0.401000       0.326000
O         -1.577000       5.928000      -1.631000
H         -2.108000       5.233000      -1.255000
H         -2.147000       6.692000      -1.804000
H          1.497000       6.368000       2.044000
O         -0.523000       3.527000      -3.206000
O          2.309000       6.221000       2.562000
H         -2.164000      -2.863000      -1.019000
H          0.485000       4.607000       0.128000
H          0.165000       5.901000      -0.535000
O          0.651000       5.574000       0.218000
H         -0.895000       2.195000      -2.191000
O          1.407000       3.633000       4.539000
H          1.295000       4.473000       4.064000
H          2.335000       3.400000       4.589000
H         -1.863000      -1.448000       3.325000
H         -1.486000      -0.969000       1.931000
H         -0.534000      -1.030000      -0.378000
O         -0.928000       1.416000      -1.670000
O         -1.426000      -2.556000      -1.477000
H         -0.669000       1.706000      -0.819000
H         -1.609000      -2.411000      -2.417000
H         -3.255000       1.494000       1.616000
O         -1.145000       2.905000       3.444000
H         -1.917000       2.347000       3.695000
H         -0.871000       3.409000       4.177000
H         -0.900000       4.352000      -2.963000
H          1.278000       0.573000       3.347000
H          0.473000       1.451000       4.317000
O          0.820000       0.577000       4.206000
H          2.757000       5.480000       2.092000

