%chk=part0_1_2.chk
%nproc=6
# hf/3-21g force 

Part[0, 1, 2]Frag

0 1
O         -0.309000      -0.401000       0.326000
H         -1.863000      -1.448000       3.325000
H         -1.486000      -0.969000       1.931000
H         -2.164000      -2.863000      -1.019000
O         -1.426000      -2.556000      -1.477000
H         -0.534000      -1.030000      -0.378000
H         -3.255000       1.494000       1.616000
H         -2.916000       2.034000       0.266000
O         -2.695000       1.298000       0.849000
O         -0.928000       1.416000      -1.670000
O         -2.189000      -1.319000       2.442000
H         -1.118000       0.133000       0.430000
H         -0.895000       2.195000      -2.191000
H         -0.669000       1.706000      -0.819000
H         -1.609000      -2.411000      -2.417000

