%chk=molecule.chk
%nproc=4
# hf/3-21g force 

Part[2, 3]Frag

0 1
H         -11.411000      4.142000       7.280000
H         -7.485000       4.256000       6.051000
O         -7.199000      -0.050000       6.199000
C         -8.509000       4.522000       5.748000
C         -7.409000       0.354000       7.589000
C         -9.389000       4.796000       6.958000
O         -8.999000       3.941000       8.026000
C         -10.789000      4.473000       6.440000
H         -8.477000       5.389000       5.070000
H         -9.319000       5.848000       7.277000
H         -8.898000       1.684000       6.807000
H         -8.031000      -0.379000       8.116000
P         -7.449000       4.158000       8.105000
O         -7.229000       4.015000       9.558000
O         -6.659000       5.211000       7.428000
O         -7.199000       2.759000       7.379000
C         -8.139000       1.679000       7.602000
H         -5.939000       1.058000       9.036000
H         -8.628000       1.818000       8.578000
C         -6.009000       0.345000       8.199000
H         -11.295649      5.251713       5.950702
H         -10.638226      3.689695       5.757211
H         -8.998712       3.707423       5.301741
H         -5.721068      -0.611820       8.521631
H         -5.401543       0.637684       7.394120
H         -6.189587       0.079888       5.940709
