%chk=part0_2_3.chk
%nproc=6
# hf/3-21g force 

Part[0, 2, 3]Frag

0 1
H         -1.863000      -1.448000       3.325000
O         -0.523000       3.527000      -3.206000
O         -0.928000       1.416000      -1.670000
H         -1.486000      -0.969000       1.931000
H         -0.900000       4.352000      -2.963000
H         -0.879000       3.357000      -4.114000
H         -0.895000       2.195000      -2.191000
H         -0.534000      -1.030000      -0.378000
O          0.320000       2.785000       0.913000
H          1.254000       2.934000       1.156000
H         -0.228000       2.729000       1.669000
H         -2.916000       2.034000       0.266000
O         -2.695000       1.298000       0.849000
H         -3.255000       1.494000       1.616000
O         -2.189000      -1.319000       2.442000
H         -1.118000       0.133000       0.430000
O         -0.309000      -0.401000       0.326000
H         -0.669000       1.706000      -0.819000

