%chk=part1.chk
%nproc=8
# hf/3-21g force 

Part[1]Frag

0 1
H          0.503000      -3.771000      -0.582000
H         -2.916000       2.034000       0.266000
O         -0.276000       1.994000      -5.621000
H          5.743000       1.974000      -2.811000
H          0.060000       1.161000      -5.223000
H         -0.537000       1.765000      -6.482000
H         -0.848000      -1.556000      -4.170000
H          4.909000       4.432000      -2.186000
H          3.705000      -3.486000       1.729000
H          3.031000       0.728000      -3.655000
O          5.073000       4.047000      -1.331000
H          3.580000      -2.094000      -3.879000
H         -3.180000       4.288000       0.592000
H          1.032000      -0.704000      -3.488000
H          1.674000       0.024000      -1.288000
H          3.440000       1.044000      -0.874000
H          3.657000       2.612000      -1.014000
H          2.069000      -5.108000      -2.240000
H          1.797000      -5.228000      -0.660000
H          2.319000       2.182000      -2.323000
O         -1.577000       5.928000      -1.631000
H          0.124000      -3.428000      -3.719000
H          0.792000      -2.684000      -2.600000
O          2.310000       2.372000      -3.251000
H          1.399000       2.692000      -3.457000
O         -0.928000       1.416000      -1.670000
H          2.659000      -1.205000      -1.405000
O          0.474000      -4.214000       0.227000
H         -0.394000      -4.564000       0.511000
O          1.700000      -0.933000      -1.447000
H         -0.895000       2.195000      -2.191000
O         -3.511000      -4.653000      -1.006000
H         -3.264000      -4.868000      -0.138000
H         -2.875000      -5.102000      -1.555000
H         -0.669000       1.706000      -0.819000
O          5.171000       2.867000      -4.433000
H          4.334000       2.465000      -4.356000
H          5.363000       3.197000      -5.279000
O          3.527000      -0.165000      -3.734000
H          6.594000       1.038000      -1.865000
H         -1.118000       0.133000       0.430000
O         -1.244000      -2.275000      -4.634000
H         -2.212000      -2.105000      -4.610000
H          1.540000      -4.177000       1.847000
H          1.164000      -4.641000       3.313000
H          5.180000       4.880000      -0.910000
O         -1.039000      -5.909000      -1.965000
H         -0.571000      -5.204000      -2.401000
H         -0.328000      -6.458000      -1.453000
O          4.706000      -4.262000      -1.328000
H          4.222000      -3.948000      -2.142000
H          4.190000      -4.989000      -1.068000
O          0.256000      -0.184000      -3.718000
H         -0.104000       0.185000      -2.890000
H          4.383000       0.007000      -3.412000
H          4.973000      -1.178000      -0.907000
H          4.047000      -1.473000       0.236000
H         -2.164000      -2.863000      -1.019000
O         -1.426000      -2.556000      -1.477000
O         -3.932000      -1.384000      -0.380000
H         -1.609000      -2.411000      -2.417000
O          4.267000      -0.809000      -0.350000
H         -0.534000      -1.030000      -0.378000
O          3.288000      -2.542000       4.679000
H          4.914000      -1.472000       2.150000
H          3.837000      -2.038000       4.113000
O          4.262000      -3.067000       1.131000
H          6.413000      -2.953000      -1.298000
O          6.505000      -2.063000      -1.610000
O          0.667000      -3.568000      -2.888000
H          6.678000      -2.048000      -2.591000
O         -0.523000       3.527000      -3.206000
H         -0.900000       4.352000      -2.963000
H         -0.879000       3.357000      -4.114000
O         -2.157000      -4.323000       1.711000
H          4.550000      -3.542000       0.360000
O          3.545000      -3.046000      -3.618000
H          2.668000      -3.302000      -3.589000
O          5.714000       1.225000      -2.114000
O          3.004000       1.894000      -0.787000
H          2.775000      -3.049000       4.062000
O          2.350000      -5.529000      -1.428000
H          4.639000      -0.696000       2.719000
H         -2.108000       5.233000      -1.255000
H         -2.147000       6.692000      -1.804000
H          1.832000      -4.287000       2.736000
H         -2.031000      -3.349000       1.812000
H         -1.761000      -4.766000       2.383000
H         -3.298000       3.944000      -0.271000
H         -4.360000      -1.876000       0.288000
H         -3.509000      -0.626000       0.097000
H         -2.695000       1.298000       0.849000
H         -0.309000      -0.401000       0.326000

