%chk=part1_2.chk
%nproc=6
# hf/3-21g force 

Part[1, 2]Frag

0 1
H         -4.337000       6.927000      -2.116000
O         -4.936000       7.389000       0.936000
H         -4.659000       4.701000      -1.980000
H         -5.061000       5.773000       1.447000
H         -6.366000       4.875000      -0.204000
O         -2.192000       4.642000      -1.885000
C         -4.385000       5.109000      -1.005000
C         -2.887000       4.725000      -0.867000
N         -4.506000       6.565000      -1.177000
C         -5.367000       4.476000       0.032000
O         -5.029000       4.785000       1.374000
H          0.743000      -1.629000      -0.701000
C         -4.896000       0.227000      -0.585000
C         -4.694000       0.777000       0.681000
C         -4.921000       2.131000       0.907000
H         -2.673000       0.873000      -1.341000
C         -5.361000       2.959000      -0.133000
C         -5.702000       2.374000      -1.359000
C          2.728000      -4.211000      -1.707000
C          0.758000      -3.949000      -0.327000
C          1.341000      -4.199000      -1.570000
C          2.965000      -3.792000       0.659000
C          1.575000      -3.776000       0.797000
H          3.177000      -4.405000      -2.674000
C          3.553000      -3.977000      -0.597000
H          5.515000      -4.388000       0.158000
H          0.696000      -4.355000      -2.431000
C          5.063000      -3.952000      -0.749000
H          6.357000      -4.587000      -2.052000
O          5.398000      -4.715000      -1.889000
H          3.580000      -3.659000       1.546000
Cl         0.868000      -3.511000       2.373000
C         -1.152000      -2.595000      -0.545000
O         -4.455000      -1.055000      -0.857000
C         -3.073000      -1.187000      -0.864000
C         -2.550000      -2.463000      -0.588000
C         -0.860000      -0.243000      -1.061000
C         -2.241000      -0.097000      -1.128000
H         -4.708000       2.559000       1.879000
H         -4.272000       0.149000       1.459000
C         -5.472000       1.015000      -1.587000
O         -0.620000      -3.837000      -0.226000
Cl        -5.817000       0.332000      -3.161000
H         -6.106000       2.971000      -2.173000
C         -0.326000      -1.497000      -0.780000
H         -3.448000      -3.460000      -0.296000
H          5.653000      -2.486000      -0.863000
H          0.076000       0.933000      -1.336000
H         -2.397000       4.524000       0.379000
H         -4.692000       7.550000      -0.270000

