%chk=molecule.chk
%nproc=4
# hf/3-21g force 

Part[3]Frag

0 1
C         -9.219000       3.341000       5.101000
O         -10.609000      8.619000       6.118000
C         -9.389000       4.796000       6.958000
H         -12.699000      8.927000       3.207000
O         -8.999000       3.941000       8.026000
H         -9.319000       5.848000       7.277000
H         -9.391000       5.446000       3.452000
H         -9.289000       5.447000       0.987000
H         -8.901000       2.272000      -0.881000
H         -9.098000       4.043000      -0.980000
P         -7.449000       4.158000       8.105000
O         -7.229000       4.015000       9.558000
O         -6.659000       5.211000       7.428000
O         -7.199000       2.759000       7.379000
C         -8.139000       1.679000       7.602000
H         -12.359000      2.060000      -2.329000
H         -8.628000       1.818000       8.578000
H         -15.387000      8.826000       2.325000
H         -15.659000      7.161000       1.712000
H         -14.791000      7.493000       4.132000
H         -12.136000      5.056000       3.540000
N         -12.159000      0.949000       0.705000
C         -12.169000      1.389000       1.960000
N         -12.289000      2.617000       2.415000
C         -12.409000      3.482000       1.391000
N         -9.169000       3.348000       3.615000
C         -9.019000       2.130000       2.960000
C         -8.509000       4.522000       5.748000
O         -8.929000       1.094000       3.635000
H         -11.856000      7.347000       1.599000
H         -10.865000      6.925000       3.037000
C         -10.789000      4.473000       6.440000
O         -10.579000      3.382000       5.489000
H         -15.756000      9.834000      -1.216000
P         -10.829000      7.952000       4.817000
P         -14.209000      9.367000       0.000000
O         -15.649000      9.353000      -0.401000
O         -13.419000      9.190000      -1.240000
O         -13.989000      10.631000      0.734000
C         -14.899000      7.881000       2.047000
O         -13.959000      8.126000       0.971000
O         -13.959000      5.886000       3.037000
C         -14.169000      7.317000       3.247000
N         -8.969000       2.252000       1.455000
C         -11.519000      5.595000       5.735000
H         -12.062000      0.622000       2.719000
O         -10.579000      6.383000       4.963000
C         -6.009000       0.345000       8.199000
O         -7.199000      -0.050000       6.199000
C         -7.409000       0.354000       7.589000
H         -7.485000       4.256000       6.051000
H         -5.939000       1.058000       9.036000
H         -8.477000       5.389000       5.070000
O         -12.379000      7.728000       4.868000
C         -12.769000      7.870000       3.508000
C         -12.599000      5.641000       2.732000
C         -11.889000      6.984000       2.637000
C         -12.629000      5.293000       0.184000
N         -12.549000      4.844000       1.478000
C         -12.409000      3.197000       0.058000
N         -12.559000      4.344000      -0.699000
N         -12.269000      1.395000      -1.548000
H         -12.009000      6.239000       6.479000
H         -8.756000       2.412000       5.464000
H         -11.411000      4.142000       7.280000
N         -9.019000       3.185000      -0.417000
C         -9.069000       3.254000       0.906000
C         -9.269000       4.509000       2.912000
C         -9.219000       4.520000       1.554000
H         -12.278000      5.169000       5.062000
H         -8.031000      -0.379000       8.116000
H         -12.740000      6.345000      -0.077000
O         -10.039000      8.473000       3.678000
H         -8.898000       1.684000       6.807000
C         -12.279000      1.836000      -0.294000
H         -12.170000      0.387000      -1.739000
H         -5.721068      -0.611820       8.521631
H         -5.401543       0.637684       7.394120
H         -6.189587       0.079888       5.940709
